
 OpenBabel09132113023D

 20 19  0  0  0  0  0  0  0  0999 V2000
   -4.6580   -0.2728   -0.0863 N   0  0  0  0  0  0  0  0  0  0  0  0
   -5.0607    1.0970   -0.3615 C   0  0  0  0  0  0  0  0  0  0  0  0
   -5.6908   -1.0890    0.5472 C   0  0  0  0  0  0  0  0  0  0  0  0
   -1.9679   -2.1551    0.7798 H   0  0  0  0  0  0  0  0  0  0  0  0
   -4.2062    1.7604   -0.5214 H   0  0  0  0  0  0  0  0  0  0  0  0
   -5.6904    1.1258   -1.2575 H   0  0  0  0  0  0  0  0  0  0  0  0
   -5.6306    1.5135    0.4758 H   0  0  0  0  0  0  0  0  0  0  0  0
   -6.1479   -0.5536    1.3872 H   0  0  0  0  0  0  0  0  0  0  0  0
   -6.4764   -1.3427   -0.1722 H   0  0  0  0  0  0  0  0  0  0  0  0
   -5.2690   -2.0163    0.9519 H   0  0  0  0  0  0  0  0  0  0  0  0
   -3.6222   -0.8758   -0.7692 C   0  0  0  0  0  0  0  0  0  0  0  0
   -0.5631    0.5911    0.3546 N   0  0  0  0  0  0  0  0  0  0  0  0
   -2.4846    0.7468   -0.8081 H   0  0  0  0  0  0  0  0  0  0  0  0
   -2.4131   -0.2431   -0.6493 N   0  0  0  0  0  0  0  0  0  0  0  0
   -1.2326   -1.4735    1.0132 N   0  0  0  0  0  0  0  0  0  0  0  0
   -3.7406   -1.9965   -1.3970 N   0  0  0  0  0  0  0  0  0  0  0  0
   -1.4183   -0.4541    0.2517 C   0  0  0  0  0  0  0  0  0  0  0  0
   -4.7226   -2.2791   -1.3864 H   0  0  0  0  0  0  0  0  0  0  0  0
    0.0075    0.6700   -0.4809 H   0  0  0  0  0  0  0  0  0  0  0  0
    0.0707    0.3850    1.1241 H   0  0  0  0  0  0  0  0  0  0  0  0
  1  2  1  0  0  0  0
  1  3  1  0  0  0  0
  1 11  1  0  0  0  0
  2  5  1  0  0  0  0
  2  6  1  0  0  0  0
  2  7  1  0  0  0  0
  3  8  1  0  0  0  0
  3  9  1  0  0  0  0
  3 10  1  0  0  0  0
  4 15  1  0  0  0  0
 11 14  1  0  0  0  0
 11 16  2  0  0  0  0
 12 17  1  0  0  0  0
 12 19  1  0  0  0  0
 12 20  1  0  0  0  0
 13 14  1  0  0  0  0
 14 17  1  0  0  0  0
 15 17  2  0  0  0  0
 16 18  1  0  0  0  0
M  END
$$$$
